<?xml version="1.0" encoding="UTF-8"?>

<!-- generated on 2024-12-25 15:37:58 by Eclipse SUMO netedit Version 1.21.0
-->

<routes xmlns:xsi="http://www.w3.org/2001/XMLSchema-instance" xsi:noNamespaceSchemaLocation="http://sumo.dlr.de/xsd/routes_file.xsd">
    <!-- VTypes -->
    <vType id="car" length="4.00" maxSpeed="50.50" 
    lcStrategic="1.0" lcCooperative="1.0" lcSpeedGain="1.0" lcKeepRight="0.0" accel="1.0" decel="5.0"/>
       <!-- Vehicle Type Distribution -->
    <vTypeDistribution id="car_colors">
        <vType id="car_red" accel="1.0" decel="3.0" length="4" maxSpeed="50.50" color="1,0,0" probability="0.4"/> <!-- 40% Red -->
        <vType id="car_blue" accel="1.0" decel="3.0" length="4" maxSpeed="50.50" color="0,0,1" probability="0.3"/> <!-- 30% Blue -->
        <vType id="car_green" accel="1.0" decel="3.0" length="4" maxSpeed="50.50" color="0,1,0" probability="0.3"/> <!-- 30% Green -->
        <vType id="bus" accel="0.8" decel="2.0" length="12" maxSpeed="25" vClass="bus" color="1,0.5,0" probability="0.2"/> <!-- Orange Bus -->
        <vType id="taxi" accel="1.5" decel="4.0" length="5" maxSpeed="50" vClass="passenger" color="1,0.75,0" probability="0.2"/> <!-- Yellow Taxi -->
        <vType id="moped" accel="1.2" decel="2.5" length="2.5" maxSpeed="25" color="0,0,1" vClass="motorcycle" probability="0.2"/> <!-- Blue Moped -->
        <vType id="truck" accel="0.8" decel="2.5" length="12" maxSpeed="40" color="0.5,0.5,0.5" vClass="truck" probability="0.2"/> <!-- Gray Truck -->
    </vTypeDistribution>
    <!-- Routes -->
    <route id="highway" edges="in 2to3 out"/>
    <route id="ramp" edges="E3 E4 2to3 out"/>
    <!-- Vehicles, persons and containers (sorted by depart) -->
    <flow id="highway" begin="0.00" arrivalLane="random" from="in" to="out" via="2to3" type="car_colors" end="500.00" number="300"/>
    <flow id="ramp" begin="0.00" arrivalLane="random" from="E3" to="out" via="2to3" type="car_colors" end="500.00" number="20"/>
</routes>